13
butanone.gzmat
C  1.0651  1.6325  0.0000
C  0.0000  0.5531  0.0000
C  0.5050  -0.8811 0.0000
C  -0.6102 -1.9170 0.0000
O  -1.1744 0.8174  0.0000
H  0.5916  2.6132  0.0000
H  1.7067  1.5324  0.8804
H  1.7067  1.5324  -0.8804
H  -0.1946 -2.9273 0.0000
H -1.2460 -1.8029 0.8797
H -1.2460 -1.8029 -0.8797
H 1.1586  -1.0046 -0.8720
H 1.1586  -1.0046 0.8720
