15
diethyl_ether.gzmat
O1  0.0000  0.0000  0.2623
C2  0.0000  1.1973  -0.5277
C3  0.0000  -1.1973 -0.5277
C4  0.0000  2.3969  0.4185
C5  0.0000  -2.3969 0.4185
H6  0.8924  1.2174  -1.1859
H7  -0.8924 1.2174  -1.1859
H8  0.8924  -1.2174 -1.1859
H9  -0.8924 -1.2174 -1.1859
H10 0.0000  3.3393  -0.1494
H11 0.0000  -3.3393 -0.1494
H12 -0.8897 2.3802  1.0637
H13 0.8897  2.3802  1.0637
H14 0.8897  -2.3802 1.0637
H15 -0.8897 -2.3802 1.0637
