9
/nv/hp22/dprofili3/data/NN_project/TFSI_charge_fitting/quantum_chemistry/output/ethanol-2019-06-19/1946/gzmat/ethanol_3.gzmat
C          0.00000        0.00000        0.00000
C          1.45274        0.00000        0.00000
O          1.85381        0.00000        1.33090
H          2.82581       -0.00048        1.39632
H         -0.38827        0.00054       -1.02214
H         -0.37627       -0.88455        0.51876
H         -0.37627        0.88455        0.51876
H          1.83611       -0.88745       -0.52233
H          1.82306        0.85723       -0.50454
