9
/nv/hp22/dprofili3/data/NN_project/TFSI_charge_fitting/quantum_chemistry/output/ethanol-2019-06-19/1946/gzmat/ethanol_21.gzmat
C          0.00000        0.00000        0.00000
C          1.45274        0.00000        0.00000
O          1.83797        0.00000        1.27834
H          2.80997       -0.00048        1.34375
H         -0.40626       -0.10807       -1.00936
H         -0.34241       -0.88332        0.51803
H         -0.29158        0.92698        0.56749
H          1.83356       -0.87915       -0.52292
H          1.86048        0.84452       -0.49706
