9
/nv/hp22/dprofili3/data/NN_project/TFSI_charge_fitting/quantum_chemistry/output/ethanol-2019-06-19/1946/gzmat/ethanol_69.gzmat
C          0.00000        0.00000        0.00000
C          1.44480        0.00000        0.00000
O          1.78660        0.00000        1.36247
H          2.71820        0.01742        1.46182
H         -0.39601       -0.10251       -1.03408
H         -0.28392       -0.89448        0.46234
H         -0.32922        0.91048        0.46093
H          1.81776       -0.81318       -0.54787
H          1.90913        0.74487       -0.67438
