9
/nv/hp22/dprofili3/data/NN_project/TFSI_charge_fitting/quantum_chemistry/output/ethanol-2019-06-19/1946/gzmat/ethanol_97.gzmat
C          0.00000        0.00000        0.00000
C          1.41182        0.00000        0.00000
O          1.78790        0.00000        1.30658
H          2.73483       -0.00443        1.45430
H         -0.37346       -0.11794       -0.99773
H         -0.51709       -0.63681        0.61364
H         -0.33531        0.94433        0.43427
H          1.78478       -0.83131       -0.51995
H          1.83357        0.75866       -0.68687
