9
/nv/hp22/dprofili3/data/NN_project/TFSI_charge_fitting/quantum_chemistry/output/ethanol-2019-06-19/1946/gzmat/ethanol_45.gzmat
C          0.00000        0.00000        0.00000
C          1.44480        0.00000        0.00000
O          1.81944        0.00000        1.29838
H          2.74951       -0.09166        1.36624
H         -0.39601       -0.11779       -1.03245
H         -0.30444       -0.93134        0.54619
H         -0.34550        0.92399        0.54151
H          1.75227       -0.86856       -0.58518
H          1.86513        0.69290       -0.73511
