9
/nv/hp22/dprofili3/data/NN_project/TFSI_charge_fitting/quantum_chemistry/output/ethanol-2019-06-19/1946/gzmat/ethanol_48.gzmat
C          0.00000        0.00000        0.00000
C          1.44480        0.00000        0.00000
O          1.81944        0.00000        1.29838
H          2.75395        0.01742        1.36496
H         -0.39601       -0.11779       -1.03245
H         -0.30444       -0.93134        0.54619
H         -0.34550        0.92399        0.54151
H          1.84335       -0.84271       -0.56776
H          1.94402        0.66782       -0.70850
