9
/nv/hp22/dprofili3/data/NN_project/TFSI_charge_fitting/quantum_chemistry/output/ethanol-2019-06-19/1946/gzmat/ethanol_84.gzmat
C          0.00000        0.00000        0.00000
C          1.41182        0.00000        0.00000
O          1.84951        0.00000        1.33476
H          2.78596       -0.00448        1.36765
H         -0.38768       -0.10118       -1.02071
H         -0.31919       -0.76701        0.59940
H         -0.33531        0.92603        0.47204
H          1.78478       -0.83131       -0.51995
H          1.83357        0.75866       -0.68687
