9
/nv/hp22/dprofili3/data/NN_project/TFSI_charge_fitting/quantum_chemistry/output/ethanol-2019-06-19/1946/gzmat/ethanol_79.gzmat
C          0.00000        0.00000        0.00000
C          1.44480        0.00000        0.00000
O          1.80778        0.00000        1.35698
H          2.74096       -0.00448        1.44177
H         -0.39316       -0.10261       -1.03515
H         -0.31919       -0.76701        0.59940
H         -0.33531        0.92734        0.46946
H          1.81776       -0.81318       -0.54787
H          1.86655        0.75866       -0.68687
