9
/nv/hp22/dprofili3/data/NN_project/TFSI_charge_fitting/quantum_chemistry/output/ethanol-2019-06-19/1946/gzmat/ethanol_75.gzmat
C          0.00000        0.00000        0.00000
C          1.44480        0.00000        0.00000
O          1.86606        0.00000        1.34003
H          2.80188        0.01742        1.38448
H         -0.39316       -0.10261       -1.03515
H         -0.31919       -0.86475        0.44697
H         -0.32922        0.91048        0.46093
H          1.81776       -0.81318       -0.54787
H          1.86655        0.75866       -0.68687
